power-feeders/Taxonomy_feeders/R1_1247_3_t6.glm
//Input feeder information for Taxonomy Feeders with different cases.
//Started on 10/21/09. This version created 25-Feb-2019 18:33:35.
// This version was created to perform FY11 Department of Energy
// analysis on the benefits of the SGIG grant projects.

clock {
     timezone PST+8PDT;
     starttime '2009-01-01 00:00:00';
     stoptime '2010-01-02 00:00:00';
}

#include "appliance_schedules.glm";
#include "water_and_setpoint_schedule_v5.glm";
#include "commercial_schedules.glm";
#include "daily_elasticity_schedules.glm";
//#define stylesheet=http://gridlab-d.svn.sourceforge.net/viewvc/gridlab-d/trunk/core/gridlabd-2_0
#set minimum_timestep=60;
#set profiler=1;
#set relax_naming_rules=1;

module tape;
module climate;
module residential {
     implicit_enduses NONE;
};
module powerflow {
     solver_method NR;
     NR_iteration_limit 50;
};

class player {
     double value;
};

module market;

class auction {
     double my_avg;
     double my_std;
};

object player {
     name CPP_days_R1;
     file CPP_days_R1.player;
};

object auction {
     name Market_1;
     period 900;
     special_mode BUYERS_ONLY;
     unit kW;
     my_avg 0.099172;
     my_std 0.033058;
     object player {
          file R1_1247_3_t0_TOU.player;
          loop 10;
          property current_market.clearing_price;
     };
}

object climate {
     name "CA-San_francisco";
     tmyfile "CA-San_francisco.tmy2";
     interpolate QUADRATIC;
};

//Configurations

object regulator_configuration {     
      name regulator_configuration_223;     
      name feeder_reg_cfg;     
      Control OUTPUT_VOLTAGE;     
      band_center 7500.0;     
      band_width 120;     
      connect_type WYE_WYE;     
      time_delay 30;     
      raise_taps 16;     
      lower_taps 16;     
      regulation 0.10;     
      tap_pos_A 0;     
      tap_pos_B 0;     
      tap_pos_C 0;     
}       

object line_configuration {     
      name line_configuration_17;     
      conductor_A underground_line_conductor_2;     
      conductor_B underground_line_conductor_2;     
      conductor_C underground_line_conductor_2;     
      conductor_N underground_line_conductor_2;     
      spacing line_spacing_9;     
}       

object line_configuration {     
      name line_configuration_18;     
      conductor_A overhead_line_conductor_3;     
      conductor_B overhead_line_conductor_3;     
      conductor_C overhead_line_conductor_3;     
      conductor_N overhead_line_conductor_3;     
      spacing line_spacing_10;     
}       

object line_configuration {     
      name line_configuration_19;     
      conductor_A overhead_line_conductor_4;     
      conductor_C overhead_line_conductor_4;     
      conductor_N overhead_line_conductor_4;     
      spacing line_spacing_11;     
}       

object line_configuration {     
      name line_configuration_20;     
      conductor_C overhead_line_conductor_5;     
      conductor_N overhead_line_conductor_5;     
      spacing line_spacing_12;     
}       

object line_configuration {     
      name line_configuration_21;     
      conductor_A overhead_line_conductor_4;     
      conductor_B overhead_line_conductor_4;     
      conductor_C overhead_line_conductor_4;     
      conductor_N overhead_line_conductor_4;     
      spacing line_spacing_10;     
}       

object line_configuration {     
      name line_configuration_22;     
      conductor_A overhead_line_conductor_5;     
      conductor_C overhead_line_conductor_5;     
      conductor_N overhead_line_conductor_5;     
      spacing line_spacing_11;     
}       

object line_configuration {     
      name line_configuration_23;     
      conductor_C overhead_line_conductor_4;     
      conductor_N overhead_line_conductor_4;     
      spacing line_spacing_12;     
}       

object line_configuration {     
      name line_configuration_24;     
      conductor_A overhead_line_conductor_6;     
      conductor_B overhead_line_conductor_6;     
      conductor_C overhead_line_conductor_6;     
      conductor_N overhead_line_conductor_6;     
      spacing line_spacing_10;     
}       

object line_configuration {     
      name line_configuration_25;     
      conductor_A overhead_line_conductor_6;     
      conductor_N overhead_line_conductor_6;     
      spacing line_spacing_13;     
}       

object line_configuration {     
      name line_configuration_26;     
      conductor_A overhead_line_conductor_7;     
      conductor_B overhead_line_conductor_7;     
      conductor_C overhead_line_conductor_7;     
      conductor_N overhead_line_conductor_7;     
      spacing line_spacing_10;     
}       

object line_configuration {     
      name line_configuration_27;     
      conductor_A overhead_line_conductor_5;     
      conductor_B overhead_line_conductor_5;     
      conductor_C overhead_line_conductor_5;     
      conductor_N overhead_line_conductor_5;     
      spacing line_spacing_10;     
}       

object line_configuration {     
      name line_configuration_28;     
      conductor_B underground_line_conductor_8;     
      conductor_C underground_line_conductor_8;     
      conductor_N underground_line_conductor_8;     
      spacing line_spacing_14;     
}       

object line_configuration {     
      name line_configuration_29;     
      conductor_B underground_line_conductor_8;     
      conductor_N underground_line_conductor_8;     
      spacing line_spacing_15;     
}       

object line_configuration {     
      name line_configuration_30;     
      conductor_B overhead_line_conductor_5;     
      conductor_C overhead_line_conductor_5;     
      conductor_N overhead_line_conductor_5;     
      spacing line_spacing_16;     
}       

object line_configuration {     
      name line_configuration_31;     
      conductor_A overhead_line_conductor_4;     
      conductor_N overhead_line_conductor_4;     
      spacing line_spacing_13;     
}       

object line_configuration {     
      name line_configuration_32;     
      conductor_A overhead_line_conductor_5;     
      conductor_N overhead_line_conductor_5;     
      spacing line_spacing_13;     
}       

object line_configuration {     
      name line_configuration_33;     
      conductor_A underground_line_conductor_8;     
      conductor_B underground_line_conductor_8;     
      conductor_C underground_line_conductor_8;     
      conductor_N underground_line_conductor_8;     
      spacing line_spacing_9;     
}       

object line_spacing {     
      name line_spacing_9;     
      distance_AB 0.0 in;    
      distance_BC 0.0 in;    
      distance_AC 0.0 in;    
      distance_AN 0.0 in;    
      distance_BN 0.0 in;    
      distance_CN 0.0 in;    
}       

object line_spacing {     
      name line_spacing_10;     
      distance_AB 57.6 in;    
      distance_BC 57.6 in;    
      distance_AC 57.6 in;    
      distance_AN 84.0 in;    
      distance_BN 84.0 in;    
      distance_CN 84.0 in;    
}       

object line_spacing {     
      name line_spacing_11;     
      distance_AC 57.6 in;    
      distance_AN 84.0 in;    
      distance_CN 84.0 in;    
}       

object line_spacing {     
      name line_spacing_12;     
      distance_CN 84.0 in;    
}       

object line_spacing {     
      name line_spacing_13;     
      distance_AN 84.0 in;    
}       

object line_spacing {     
      name line_spacing_14;     
      distance_BC 0.0 in;    
      distance_BN 0.0 in;    
      distance_CN 0.0 in;    
}       

object line_spacing {     
      name line_spacing_15;     
      distance_BN 0.0 in;    
}       

object line_spacing {     
      name line_spacing_16;     
      distance_BC 57.6 in;    
      distance_BN 84.0 in;    
      distance_CN 84.0 in;    
}       

object overhead_line_conductor {     
      name overhead_line_conductor_3;     
      //name 4/0 ACSR;    
      rating.summer.continuous 334.0;     
      geometric_mean_radius 0.00814 ft;    
      resistance 0.56300;     
}       

object overhead_line_conductor {     
      name overhead_line_conductor_4;     
      //name 4 AAAC;    
      rating.summer.continuous 120.0;     
      geometric_mean_radius 0.00700 ft;    
      resistance 2.40970;     
}       

object overhead_line_conductor {     
      name overhead_line_conductor_5;     
      //name 4 CU;    
      rating.summer.continuous 149.0;     
      geometric_mean_radius 0.00663 ft;    
      resistance 1.50000;     
}       

object overhead_line_conductor {     
      name overhead_line_conductor_6;     
      //name 2 ACSR;    
      rating.summer.continuous 180.0;     
      geometric_mean_radius 0.00418 ft;    
      resistance 1.62570;     
}       

object overhead_line_conductor {     
      name overhead_line_conductor_7;     
      //name 1/0 AAC;    
      rating.summer.continuous 230.0;     
      geometric_mean_radius 0.01203 ft;    
      resistance 0.95300;     
}       

object transformer_configuration {     
      name transformer_configuration_132;     
      connect_type SINGLE_PHASE_CENTER_TAPPED;     
      install_type POLETOP;     
      primary_voltage 7200 V;    
      secondary_voltage 120 V;    
      power_rating 450.0;     
      powerB_rating 450.0;     
      resistance 0.00033;     
      reactance 0.00022;     
      shunt_impedance 1226.160+1358.242j;     
}       

object transformer_configuration {     
      name transformer_configuration_134;     
      connect_type WYE_WYE;     
      install_type PADMOUNT;     
      primary_voltage 12470.000 V;    
      secondary_voltage 480 V;    
      power_rating 50.0;     
      powerC_rating 50.0;     
      resistance 0.00200;     
      reactance 0.01000;     
      shunt_impedance 391.760+390.395j;     
}       

object transformer_configuration {     
      name transformer_configuration_135;     
      connect_type WYE_WYE;     
      install_type PADMOUNT;     
      primary_voltage 12470.000 V;    
      secondary_voltage 480 V;    
      power_rating 45.0;     
      powerA_rating 15.0;     
      powerB_rating 15.0;     
      powerC_rating 15.0;     
      resistance 0.00222;     
      reactance 0.01111;     
      shunt_impedance 381.330+362.111j;     
}       

object transformer_configuration {     
      name transformer_configuration_136;     
      connect_type WYE_WYE;     
      install_type POLETOP;     
      primary_voltage 12470.000 V;    
      secondary_voltage 480 V;    
      power_rating 25.0;     
      powerA_rating 0.0;     
      powerC_rating 25.0;     
      resistance 0.00400;     
      reactance 0.02000;     
      shunt_impedance 339.610+298.041j;     
}       

object transformer_configuration {     
      name transformer_configuration_137;     
      connect_type WYE_WYE;     
      install_type POLETOP;     
      primary_voltage 12470.000 V;    
      secondary_voltage 480 V;    
      power_rating 50.0;     
      powerC_rating 50.0;     
      resistance 0.00200;     
      reactance 0.01000;     
      shunt_impedance 391.760+396.403j;     
}       

object transformer_configuration {     
      name transformer_configuration_138;     
      connect_type WYE_WYE;     
      install_type POLETOP;     
      primary_voltage 12470.000 V;    
      secondary_voltage 480 V;    
      power_rating 75.0;     
      powerA_rating 0.0;     
      powerB_rating 0.0;     
      powerC_rating 75.0;     
      resistance 0.00133;     
      reactance 0.00667;     
      shunt_impedance 443.910+486.502j;     
}       

object transformer_configuration {     
      name transformer_configuration_139;     
      connect_type WYE_WYE;     
      install_type POLETOP;     
      primary_voltage 12470.000 V;    
      secondary_voltage 480 V;    
      power_rating 37.5;     
      powerA_rating 37.5;     
      resistance 0.00267;     
      reactance 0.01333;     
      shunt_impedance 365.685+353.218j;     
}       

object transformer_configuration {     
      name transformer_configuration_140;     
      connect_type WYE_WYE;     
      install_type POLETOP;     
      primary_voltage 12470.000 V;    
      secondary_voltage 480 V;    
      power_rating 75.0;     
      powerA_rating 25.0;     
      powerB_rating 25.0;     
      powerC_rating 25.0;     
      resistance 0.00133;     
      reactance 0.00667;     
      shunt_impedance 443.910+436.216j;     
}       

object transformer_configuration {     
      name transformer_configuration_141;     
      connect_type WYE_WYE;     
      install_type POLETOP;     
      primary_voltage 12470.000 V;    
      secondary_voltage 480 V;    
      power_rating 75.0;     
      powerB_rating 75.0;     
      resistance 0.00133;     
      reactance 0.00667;     
      shunt_impedance 443.910+471.268j;     
}       

object transformer_configuration {     
      name transformer_configuration_142;     
      connect_type WYE_WYE;     
      install_type POLETOP;     
      primary_voltage 12470.000 V;    
      secondary_voltage 480 V;    
      power_rating 75.0;     
      powerA_rating 0.0;     
      powerB_rating 25.0;     
      powerC_rating 50.0;     
      resistance 0.00133;     
      reactance 0.00667;     
      shunt_impedance 443.910+482.260j;     
}       

object transformer_configuration {     
      name transformer_configuration_143;     
      connect_type WYE_WYE;     
      install_type POLETOP;     
      primary_voltage 12470.000 V;    
      secondary_voltage 480 V;    
      power_rating 100.0;     
      powerA_rating 100.0;     
      resistance 0.00100;     
      reactance 0.00500;     
      shunt_impedance 496.060+425.773j;     
}       

object transformer_configuration {     
      name transformer_configuration_144;     
      connect_type WYE_WYE;     
      install_type POLETOP;     
      primary_voltage 12470.000 V;    
      secondary_voltage 480 V;    
      power_rating 25.0;     
      powerA_rating 25.0;     
      resistance 0.00400;     
      reactance 0.02000;     
      shunt_impedance 339.610+346.401j;     
}       

object transformer_configuration {     
      name transformer_configuration_145;     
      connect_type WYE_WYE;     
      install_type POLETOP;     
      primary_voltage 12470.000 V;    
      secondary_voltage 480 V;    
      power_rating 50.0;     
      powerB_rating 50.0;     
      resistance 0.00200;     
      reactance 0.01000;     
      shunt_impedance 391.760+399.432j;     
}       

object transformer_configuration {     
      name transformer_configuration_146;     
      connect_type WYE_WYE;     
      install_type POLETOP;     
      primary_voltage 12470.000 V;    
      secondary_voltage 480 V;    
      power_rating 175.0;     
      powerB_rating 175.0;     
      resistance 0.00057;     
      reactance 0.00286;     
      shunt_impedance 652.510+642.648j;     
}       

object transformer_configuration {     
      name transformer_configuration_147;     
      connect_type WYE_WYE;     
      install_type POLETOP;     
      primary_voltage 12470.000 V;    
      secondary_voltage 480 V;    
      power_rating 150.0;     
      powerA_rating 50.0;     
      powerB_rating 50.0;     
      powerC_rating 50.0;     
      resistance 0.00067;     
      reactance 0.00333;     
      shunt_impedance 600.360+653.959j;     
}       

object transformer_configuration {     
      name transformer_configuration_148;     
      connect_type WYE_WYE;     
      install_type POLETOP;     
      primary_voltage 12470.000 V;    
      secondary_voltage 480 V;    
      power_rating 112.5;     
      powerA_rating 37.5;     
      powerB_rating 37.5;     
      powerC_rating 37.5;     
      resistance 0.00089;     
      reactance 0.00444;     
      shunt_impedance 522.135+503.119j;     
}       

object triplex_line_conductor {     
      name triplex_4/0 AA;    
      resistance 0.48;     
      geometric_mean_radius 0.0158;     
}       

object triplex_line_configuration {     
      name triplex_line_configuration_1;     
      conductor_1 triplex_4/0 AA;    
      conductor_2 triplex_4/0 AA;    
      conductor_N triplex_4/0 AA;    
      insulation_thickness 0.08;     
      diameter 0.522;     
}       

object underground_line_conductor {     
      name underground_line_conductor_2;     
      //name 1000 AAC (Conc);   
      rating.summer.continuous 488.0;     
      outer_diameter 2.15;     
      conductor_gmr 0.0371 ft;    
      conductor_diameter 1.152;     
      conductor_resistance 0.091872;     
      neutral_gmr 0.0842565914341201 ft;    
      neutral_resistance 5.3856;     
      neutral_diameter 0.1019;     
      neutral_strands 20.0;     
      shield_gmr 0.00;     
      shield_resistance 0.00;     
}       

object underground_line_conductor {     
      name underground_line_conductor_8;     
      //name 1/0 AAC (Conc);   
      rating.summer.continuous 142.0;     
      outer_diameter 1.27;     
      conductor_gmr 0.01142 ft;    
      conductor_diameter 0.362;     
      conductor_resistance 0.88704;     
      neutral_gmr 0.0489686771417213 ft;    
      neutral_resistance 13.86528;     
      neutral_diameter 0.0641;     
      neutral_strands 16.0;     
      shield_gmr 0.00;     
      shield_resistance 0.00;     
}       

object transformer_configuration {
     name trans_config_to_feeder;
     connect_type WYE_WYE;
     install_type PADMOUNT;
     primary_voltage 230000;
     secondary_voltage 12470.000;
     power_rating 1.4 MVA;
     impedance 0.00033+0.0022j;
}

//Start actual feeder

object meter {
     name network_node;
     bustype SWING;
     nominal_voltage 230000;
     object player {
          property voltage_A;
          loop 100;
          file V_A.player;
     };
     object player {
          property voltage_B;
          loop 100;
          file V_B.player;
     };
     object player {
          property voltage_C;
          loop 100;
          file V_C.player;
     };
     phases ABCN;
}

object transformer {
     name substation_transformer;
     from network_node;
     to R1-12-47-3_node_53;
     phases ABCN;
     configuration trans_config_to_feeder;
}

        
object regulator {     
      name R1-12-47-3_reg_1;     
      from R1-12-47-3_node_53;     
      to R1-12-47-3_meter_22;     
      phases ABCN;     
      configuration feeder_reg_cfg;     
}       
object fuse {     
      name R1-12-47-3_fuse_1;     
      phases AN;     
      from R1-12-47-3_node_19;     
      to R1-12-47-3_node_20;     
      mean_replacement_time 1000;     
      current_limit 50000;// 10000;    
      status CLOSED;     
}       
object fuse {     
      name R1-12-47-3_fuse_2;     
      phases BCN;     
      from R1-12-47-3_node_21;     
      to R1-12-47-3_node_23;     
      mean_replacement_time 1000;     
      current_limit 50000;// 100000;    
      status CLOSED;     
}       
object fuse {     
      name R1-12-47-3_fuse_3;     
      phases AN;     
      from R1-12-47-3_node_27;     
      to R1-12-47-3_node_28;     
      mean_replacement_time 1000;     
      current_limit 50000;// 400000;    
      status CLOSED;     
}       
object fuse {     
      name R1-12-47-3_fuse_4;     
      phases AN;     
      from R1-12-47-3_node_32;     
      to R1-12-47-3_node_33;     
      mean_replacement_time 1000;     
      current_limit 50000;// 100000;    
      status CLOSED;     
}       
object fuse {     
      name R1-12-47-3_fuse_5;     
      phases ABCN;     
      from R1-12-47-3_node_32;     
      to R1-12-47-3_node_35;     
      mean_replacement_time 1000;     
      current_limit 50000;// 80000;    
      status CLOSED;     
}       
object fuse {     
      name R1-12-47-3_fuse_6;     
      phases BN;     
      from R1-12-47-3_node_36;     
      to R1-12-47-3_node_37;     
      mean_replacement_time 1000;     
      current_limit 50000;// 400000;    
      status CLOSED;     
}       
object fuse {     
      name R1-12-47-3_fuse_7;     
      phases BN;     
      from R1-12-47-3_node_36;     
      to R1-12-47-3_node_40;     
      mean_replacement_time 1000;     
      current_limit 50000;// 400000;    
      status CLOSED;     
}       

object node {
      name R1-12-47-3_load_1;     
      parent R1-12-47-3_meter_1;     
      phases CN;     
      nominal_voltage 480.00;
}


object node {
      name R1-12-47-3_load_2;     
      parent R1-12-47-3_meter_2;     
      phases ABCN;     
      nominal_voltage 480.00;
}


object node {
      name R1-12-47-3_load_3;     
      parent R1-12-47-3_meter_3;     
      phases ACN;     
      nominal_voltage 480.00;
}


object node {
      name R1-12-47-3_load_4;     
      parent R1-12-47-3_meter_4;     
      phases CN;     
      nominal_voltage 480.00;
}


object node {
      name R1-12-47-3_load_5;     
      parent R1-12-47-3_meter_5;     
      phases CN;     
      nominal_voltage 480.00;
}


object node {
      name R1-12-47-3_load_6;     
      parent R1-12-47-3_meter_6;     
      phases ABCN;     
      nominal_voltage 480.00;
}


object node {
      name R1-12-47-3_load_7;     
      parent R1-12-47-3_meter_7;     
      phases AN;     
      nominal_voltage 480.00;
}


object node {
      name R1-12-47-3_load_8;     
      parent R1-12-47-3_meter_8;     
      phases ABCN;     
      nominal_voltage 480.00;
}


object node {
      name R1-12-47-3_load_9;     
      parent R1-12-47-3_meter_9;     
      phases BN;     
      nominal_voltage 480.00;
}


object node {
      name R1-12-47-3_load_10;     
      parent R1-12-47-3_meter_10;     
      phases ABCN;     
      nominal_voltage 480.00;
}


object node {
      name R1-12-47-3_load_11;     
      parent R1-12-47-3_meter_11;     
      phases AN;     
      nominal_voltage 480.00;
}


object node {
      name R1-12-47-3_load_12;     
      parent R1-12-47-3_meter_12;     
      phases AN;     
      nominal_voltage 480.00;
}


object node {
      name R1-12-47-3_load_13;     
      parent R1-12-47-3_meter_13;     
      phases AN;     
      nominal_voltage 480.00;
}


object node {
      name R1-12-47-3_load_14;     
      parent R1-12-47-3_meter_14;     
      phases AN;     
      nominal_voltage 480.00;
}


object node {
      name R1-12-47-3_load_15;     
      parent R1-12-47-3_meter_15;     
      phases BN;     
      nominal_voltage 480.00;
}


object node {
      name R1-12-47-3_load_16;     
      parent R1-12-47-3_meter_16;     
      phases BN;     
      nominal_voltage 480.00;
}


object node {
      name R1-12-47-3_load_17;     
      parent R1-12-47-3_meter_17;     
      phases BN;     
      nominal_voltage 480.00;
}


object node {
      name R1-12-47-3_load_18;     
      parent R1-12-47-3_meter_18;     
      phases ABCN;     
      nominal_voltage 480.00;
}


object node {
      name R1-12-47-3_load_19;     
      parent R1-12-47-3_meter_19;     
      phases AN;     
      nominal_voltage 480.00;
}


object node {
      name R1-12-47-3_load_20;     
      parent R1-12-47-3_meter_20;     
      phases ABCN;     
      nominal_voltage 480.00;
}


object node {
      name R1-12-47-3_load_21;     
      parent R1-12-47-3_meter_21;     
      phases ABCN;     
      nominal_voltage 480.00;
}

object meter {     
      name R1-12-47-3_meter_1;     
      phases CN;     
      nominal_voltage 480;     
}       
object meter {     
      name R1-12-47-3_meter_2;     
      phases ABCN;     
      nominal_voltage 480;     
}       
object meter {     
      name R1-12-47-3_meter_3;     
      phases ACN;     
      nominal_voltage 480;     
}       
object meter {     
      name R1-12-47-3_meter_4;     
      phases CN;     
      nominal_voltage 480;     
}       
object meter {     
      name R1-12-47-3_meter_5;     
      phases CN;     
      nominal_voltage 480;     
}       
object meter {     
      name R1-12-47-3_meter_6;     
      phases ABCN;     
      nominal_voltage 480;     
}       
object meter {     
      name R1-12-47-3_meter_7;     
      phases AN;     
      nominal_voltage 480;     
}       
object meter {     
      name R1-12-47-3_meter_8;     
      phases ABCN;     
      nominal_voltage 480;     
}       
object meter {     
      name R1-12-47-3_meter_9;     
      phases BN;     
      nominal_voltage 480;     
}       
object meter {     
      name R1-12-47-3_meter_10;     
      phases ABCN;     
      nominal_voltage 480;     
}       
object meter {     
      name R1-12-47-3_meter_11;     
      phases AN;     
      nominal_voltage 480;     
}       
object meter {     
      name R1-12-47-3_meter_12;     
      phases AN;     
      nominal_voltage 480;     
}       
object meter {     
      name R1-12-47-3_meter_13;     
      phases AN;     
      nominal_voltage 480;     
}       
object meter {     
      name R1-12-47-3_meter_14;     
      phases AN;     
      nominal_voltage 480;     
}       
object meter {     
      name R1-12-47-3_meter_15;     
      phases BN;     
      nominal_voltage 480;     
}       
object meter {     
      name R1-12-47-3_meter_16;     
      phases BN;     
      nominal_voltage 480;     
}       
object meter {     
      name R1-12-47-3_meter_17;     
      phases BN;     
      nominal_voltage 480;     
}       
object meter {     
      name R1-12-47-3_meter_18;     
      phases ABCN;     
      nominal_voltage 480;     
}       
object meter {     
      name R1-12-47-3_meter_19;     
      phases AN;     
      nominal_voltage 480;     
}       
object meter {     
      name R1-12-47-3_meter_20;     
      phases ABCN;     
      nominal_voltage 480;     
}       
object meter {     
      name R1-12-47-3_meter_21;     
      phases ABCN;     
      nominal_voltage 480;     
}       
object meter {     
      name R1-12-47-3_meter_22;     
      phases ABCN;     
      nominal_voltage 7200;     
      voltage_A 7200+0.0j;     
      voltage_B -3600-6235j;     
      voltage_C -3600+6235j;     
}       
object node {     
      name R1-12-47-3_node_1;     
      phases ABCN;     
      voltage_A 7200+0.0j;     
      voltage_B -3600-6235j;     
      voltage_C -3600+6235j;     
      nominal_voltage 7200;     
}       
object node {     
      name R1-12-47-3_node_2;     
      phases ABCN;     
      voltage_A 7200+0.0j;     
      voltage_B -3600-6235j;     
      voltage_C -3600+6235j;     
      nominal_voltage 7200;     
}       
object node {     
      name R1-12-47-3_node_3;     
      phases ABCN;     
      voltage_A 7200+0.0j;     
      voltage_B -3600-6235j;     
      voltage_C -3600+6235j;     
      nominal_voltage 7200;     
}       
object node {     
      name R1-12-47-3_node_4;     
      phases ABCN;     
      voltage_A 7200+0.0j;     
      voltage_B -3600-6235j;     
      voltage_C -3600+6235j;     
      nominal_voltage 7200;     
}       
object node {     
      name R1-12-47-3_node_5;     
      phases ACN;     
      voltage_A 7200+0.0j;     
      voltage_C -3600+6235j;     
      nominal_voltage 7200;     
}       
object node {     
      name R1-12-47-3_node_6;     
      phases CN;     
      voltage_C -3600+6235j;     
      nominal_voltage 7200;     
}       
object node {     
      name R1-12-47-3_node_7;     
      phases ABCN;     
      voltage_A 7200+0.0j;     
      voltage_B -3600-6235j;     
      voltage_C -3600+6235j;     
      nominal_voltage 7200;     
}       
object node {     
      name R1-12-47-3_node_8;     
      phases ABCN;     
      voltage_A 7200+0.0j;     
      voltage_B -3600-6235j;     
      voltage_C -3600+6235j;     
      nominal_voltage 7200;     
}       
object node {     
      name R1-12-47-3_node_9;     
      phases ABCN;     
      voltage_A 7200+0.0j;     
      voltage_B -3600-6235j;     
      voltage_C -3600+6235j;     
      nominal_voltage 7200;     
}       
object node {     
      name R1-12-47-3_node_10;     
      phases ABCN;     
      voltage_A 7200+0.0j;     
      voltage_B -3600-6235j;     
      voltage_C -3600+6235j;     
      nominal_voltage 7200;     
}       
object node {     
      name R1-12-47-3_node_11;     
      phases ACN;     
      voltage_A 7200+0.0j;     
      voltage_C -3600+6235j;     
      nominal_voltage 7200;     
}       
object node {     
      name R1-12-47-3_node_12;     
      phases CN;     
      voltage_C -3600+6235j;     
      nominal_voltage 7200;     
}       
object node {     
      name R1-12-47-3_node_13;     
      phases ACN;     
      voltage_A 7200+0.0j;     
      voltage_C -3600+6235j;     
      nominal_voltage 7200;     
}       
object node {     
      name R1-12-47-3_node_14;     
      phases CN;     
      voltage_C -3600+6235j;     
      nominal_voltage 7200;     
}       
object node {     
      name R1-12-47-3_node_15;     
      phases ABCN;     
      voltage_A 7200+0.0j;     
      voltage_B -3600-6235j;     
      voltage_C -3600+6235j;     
      nominal_voltage 7200;     
}       
object node {     
      name R1-12-47-3_node_16;     
      phases ABCN;     
      voltage_A 7200+0.0j;     
      voltage_B -3600-6235j;     
      voltage_C -3600+6235j;     
      nominal_voltage 7200;     
}       
object node {     
      name R1-12-47-3_node_17;     
      phases ABCN;     
      voltage_A 7200+0.0j;     
      voltage_B -3600-6235j;     
      voltage_C -3600+6235j;     
      nominal_voltage 7200;     
}       
object node {     
      name R1-12-47-3_node_18;     
      phases ABCN;     
      voltage_A 7200+0.0j;     
      voltage_B -3600-6235j;     
      voltage_C -3600+6235j;     
      nominal_voltage 7200;     
}       
object node {     
      name R1-12-47-3_node_19;     
      phases ABCN;     
      voltage_A 7200+0.0j;     
      voltage_B -3600-6235j;     
      voltage_C -3600+6235j;     
      nominal_voltage 7200;     
}       
object node {     
      name R1-12-47-3_node_20;     
      phases AN;     
      voltage_A 7200+0.0j;     
      nominal_voltage 7200;     
}       
object node {     
      name R1-12-47-3_node_21;     
      phases ABCN;     
      voltage_A 7200+0.0j;     
      voltage_B -3600-6235j;     
      voltage_C -3600+6235j;     
      nominal_voltage 7200;     
}       
object node {     
      name R1-12-47-3_node_22;     
      phases ABCN;     
      voltage_A 7200+0.0j;     
      voltage_B -3600-6235j;     
      voltage_C -3600+6235j;     
      nominal_voltage 7200;     
}       
object node {     
      name R1-12-47-3_node_23;     
      phases BCN;     
      voltage_B -3600-6235j;     
      voltage_C -3600+6235j;     
      nominal_voltage 7200;     
}       
object node {     
      name R1-12-47-3_node_24;     
      phases BN;     
      voltage_B -3600-6235j;     
      nominal_voltage 7200;     
}       
object node {     
      name R1-12-47-3_node_25;     
      phases BCN;     
      voltage_B -3600-6235j;     
      voltage_C -3600+6235j;     
      nominal_voltage 7200;     
}       
object node {     
      name R1-12-47-3_node_26;     
      phases BCN;     
      voltage_B -3600-6235j;     
      voltage_C -3600+6235j;     
      nominal_voltage 7200;     
}       
object node {     
      name R1-12-47-3_node_27;     
      phases ABCN;     
      voltage_A 7200+0.0j;     
      voltage_B -3600-6235j;     
      voltage_C -3600+6235j;     
      nominal_voltage 7200;     
}       
object node {     
      name R1-12-47-3_node_28;     
      phases AN;     
      voltage_A 7200+0.0j;     
      nominal_voltage 7200;     
}       
object node {     
      name R1-12-47-3_node_29;     
      phases AN;     
      voltage_A 7200+0.0j;     
      nominal_voltage 7200;     
}       
object node {     
      name R1-12-47-3_node_30;     
      phases AN;     
      voltage_A 7200+0.0j;     
      nominal_voltage 7200;     
}       
object node {     
      name R1-12-47-3_node_31;     
      phases ABCN;     
      voltage_A 7200+0.0j;     
      voltage_B -3600-6235j;     
      voltage_C -3600+6235j;     
      nominal_voltage 7200;     
}       
object node {     
      name R1-12-47-3_node_32;     
      phases ABCN;     
      voltage_A 7200+0.0j;     
      voltage_B -3600-6235j;     
      voltage_C -3600+6235j;     
      nominal_voltage 7200;     
}       
object node {     
      name R1-12-47-3_node_33;     
      phases AN;     
      voltage_A 7200+0.0j;     
      nominal_voltage 7200;     
}       
object node {     
      name R1-12-47-3_node_34;     
      phases ABCN;     
      voltage_A 7200+0.0j;     
      voltage_B -3600-6235j;     
      voltage_C -3600+6235j;     
      nominal_voltage 7200;     
}       
object node {     
      name R1-12-47-3_node_35;     
      phases ABCN;     
      voltage_A 7200+0.0j;     
      voltage_B -3600-6235j;     
      voltage_C -3600+6235j;     
      nominal_voltage 7200;     
}       
object node {     
      name R1-12-47-3_node_36;     
      phases ABCN;     
      voltage_A 7200+0.0j;     
      voltage_B -3600-6235j;     
      voltage_C -3600+6235j;     
      nominal_voltage 7200;     
}       
object node {     
      name R1-12-47-3_node_37;     
      phases BN;     
      voltage_B -3600-6235j;     
      nominal_voltage 7200;     
}       
object node {     
      name R1-12-47-3_node_38;     
      phases BN;     
      voltage_B -3600-6235j;     
      nominal_voltage 7200;     
}       
object node {     
      name R1-12-47-3_node_39;     
      phases BN;     
      voltage_B -3600-6235j;     
      nominal_voltage 7200;     
}       
object node {     
      name R1-12-47-3_node_40;     
      phases BN;     
      voltage_B -3600-6235j;     
      nominal_voltage 7200;     
}       
object node {     
      name R1-12-47-3_node_41;     
      phases ABCN;     
      voltage_A 7200+0.0j;     
      voltage_B -3600-6235j;     
      voltage_C -3600+6235j;     
      nominal_voltage 7200;     
}       
object node {     
      name R1-12-47-3_node_42;     
      phases ABCN;     
      voltage_A 7200+0.0j;     
      voltage_B -3600-6235j;     
      voltage_C -3600+6235j;     
      nominal_voltage 7200;     
}       
object node {     
      name R1-12-47-3_node_43;     
      phases ABCN;     
      voltage_A 7200+0.0j;     
      voltage_B -3600-6235j;     
      voltage_C -3600+6235j;     
      nominal_voltage 7200;     
}       
object node {     
      name R1-12-47-3_node_44;     
      phases AN;     
      voltage_A 7200+0.0j;     
      nominal_voltage 7200;     
}       
object node {     
      name R1-12-47-3_node_45;     
      phases ABCN;     
      voltage_A 7200+0.0j;     
      voltage_B -3600-6235j;     
      voltage_C -3600+6235j;     
      nominal_voltage 7200;     
}       
object node {     
      name R1-12-47-3_node_46;     
      phases ABCN;     
      voltage_A 7200+0.0j;     
      voltage_B -3600-6235j;     
      voltage_C -3600+6235j;     
      nominal_voltage 7200;     
}       
object node {     
      name R1-12-47-3_node_47;     
      phases ABCN;     
      voltage_A 7200+0.0j;     
      voltage_B -3600-6235j;     
      voltage_C -3600+6235j;     
      nominal_voltage 7200;     
}       
object node {     
      name R1-12-47-3_node_48;     
      phases ABCN;     
      voltage_A 7200+0.0j;     
      voltage_B -3600-6235j;     
      voltage_C -3600+6235j;     
      nominal_voltage 7200;     
}       
object node {     
      name R1-12-47-3_node_49;     
      phases ABCN;     
      voltage_A 7200+0.0j;     
      voltage_B -3600-6235j;     
      voltage_C -3600+6235j;     
      nominal_voltage 7200;     
}       
object node {     
      name R1-12-47-3_node_50;     
      phases ABCN;     
      voltage_A 7200+0.0j;     
      voltage_B -3600-6235j;     
      voltage_C -3600+6235j;     
      nominal_voltage 7200;     
}       
object node {     
      name R1-12-47-3_node_51;     
      phases ABCN;     
      voltage_A 7200+0.0j;     
      voltage_B -3600-6235j;     
      voltage_C -3600+6235j;     
      nominal_voltage 7200;     
}       
object node {     
      name R1-12-47-3_node_52;     
      parent R1-12-47-3_meter_22;     
      phases ABCN;     
      voltage_A 7200+0.0j;     
      voltage_B -3600-6235j;     
      voltage_C -3600+6235j;     
      nominal_voltage 7200;     
}       
object node {     
      name R1-12-47-3_node_53;     
      phases ABCN;     
      nominal_voltage 7200;     
      voltage_A 7200+0.0j;     
      voltage_B -3600-6235j;     
      voltage_C -3600+6235j;     
}       
object overhead_line {     
      groupid Distribution_Line;
      name R1-12-47-3_ol_1;     
      phases ABCN;     
      from R1-12-47-3_node_3;     
      to R1-12-47-3_node_4;     
      length 387.401;     
      configuration line_configuration_18;     
}       
object overhead_line {     
      groupid Distribution_Line;
      name R1-12-47-3_ol_2;     
      phases ACN;     
      from R1-12-47-3_node_4;     
      to R1-12-47-3_node_5;     
      length 68.936;     
      configuration line_configuration_19;     
}       
object overhead_line {     
      groupid Distribution_Line;
      name R1-12-47-3_ol_3;     
      phases CN;     
      from R1-12-47-3_node_4;     
      to R1-12-47-3_node_6;     
      length 157.766;     
      configuration line_configuration_20;     
}       
object overhead_line {     
      groupid Distribution_Line;
      name R1-12-47-3_ol_4;     
      phases ABCN;     
      from R1-12-47-3_node_4;     
      to R1-12-47-3_node_7;     
      length 139.494;     
      configuration line_configuration_18;     
}       
object overhead_line {     
      groupid Distribution_Line;
      name R1-12-47-3_ol_5;     
      phases ABCN;     
      from R1-12-47-3_node_7;     
      to R1-12-47-3_node_8;     
      length 1260.546;     
      configuration line_configuration_18;     
}       
object overhead_line {     
      groupid Distribution_Line;
      name R1-12-47-3_ol_6;     
      phases ABCN;     
      from R1-12-47-3_node_8;     
      to R1-12-47-3_node_9;     
      length 633.806;     
      configuration line_configuration_18;     
}       
object overhead_line {     
      groupid Distribution_Line;
      name R1-12-47-3_ol_7;     
      phases ABCN;     
      from R1-12-47-3_node_9;     
      to R1-12-47-3_node_10;     
      length 237.576;     
      configuration line_configuration_21;     
}       
object overhead_line {     
      groupid Distribution_Line;
      name R1-12-47-3_ol_8;     
      phases ACN;     
      from R1-12-47-3_node_8;     
      to R1-12-47-3_node_11;     
      length 749.489;     
      configuration line_configuration_22;     
}       
object overhead_line {     
      groupid Distribution_Line;
      name R1-12-47-3_ol_9;     
      phases CN;     
      from R1-12-47-3_node_11;     
      to R1-12-47-3_node_12;     
      length 122.880;     
      configuration line_configuration_23;     
}       
object overhead_line {     
      groupid Distribution_Line;
      name R1-12-47-3_ol_10;     
      phases ACN;     
      from R1-12-47-3_node_11;     
      to R1-12-47-3_node_13;     
      length 245.725;     
      configuration line_configuration_19;     
}       
object overhead_line {     
      groupid Distribution_Line;
      name R1-12-47-3_ol_11;     
      phases CN;     
      from R1-12-47-3_node_13;     
      to R1-12-47-3_node_14;     
      length 275.331;     
      configuration line_configuration_23;     
}       
object overhead_line {     
      groupid Distribution_Line;
      name R1-12-47-3_ol_12;     
      phases ABCN;     
      from R1-12-47-3_node_8;     
      to R1-12-47-3_node_15;     
      length 275.240;     
      configuration line_configuration_18;     
}       
object overhead_line {     
      groupid Distribution_Line;
      name R1-12-47-3_ol_13;     
      phases ABCN;     
      from R1-12-47-3_node_15;     
      to R1-12-47-3_node_16;     
      length 63.897;     
      configuration line_configuration_18;     
}       
object overhead_line {     
      groupid Distribution_Line;
      name R1-12-47-3_ol_14;     
      phases ABCN;     
      from R1-12-47-3_node_17;     
      to R1-12-47-3_node_18;     
      length 1499.769;     
      configuration line_configuration_24;     
}       
object overhead_line {     
      groupid Distribution_Line;
      name R1-12-47-3_ol_15;     
      phases ABCN;     
      from R1-12-47-3_node_18;     
      to R1-12-47-3_node_19;     
      length 485.017;     
      configuration line_configuration_24;     
}       
object overhead_line {     
      groupid Distribution_Line;
      name R1-12-47-3_ol_16;     
      phases ABCN;     
      from R1-12-47-3_node_19;     
      to R1-12-47-3_node_21;     
      length 275.614;     
      configuration line_configuration_26;     
}       
object overhead_line {     
      groupid Distribution_Line;
      name R1-12-47-3_ol_17;     
      phases ABCN;     
      from R1-12-47-3_node_21;     
      to R1-12-47-3_node_22;     
      length 165.147;     
      configuration line_configuration_27;     
}       
object overhead_line {     
      groupid Distribution_Line;
      name R1-12-47-3_ol_18;     
      phases BCN;     
      from R1-12-47-3_node_25;     
      to R1-12-47-3_node_26;     
      length 497.233;     
      configuration line_configuration_30;     
}       
object overhead_line {     
      groupid Distribution_Line;
      name R1-12-47-3_ol_19;     
      phases ABCN;     
      from R1-12-47-3_node_18;     
      to R1-12-47-3_node_27;     
      length 734.441;     
      configuration line_configuration_27;     
}       
object overhead_line {     
      groupid Distribution_Line;
      name R1-12-47-3_ol_20;     
      phases AN;     
      from R1-12-47-3_node_28;     
      to R1-12-47-3_node_29;     
      length 111.674;     
      configuration line_configuration_32;     
}       
object overhead_line {     
      groupid Distribution_Line;
      name R1-12-47-3_ol_21;     
      phases AN;     
      from R1-12-47-3_node_28;     
      to R1-12-47-3_node_30;     
      length 174.016;     
      configuration line_configuration_32;     
}       
object overhead_line {     
      groupid Distribution_Line;
      name R1-12-47-3_ol_22;     
      phases ABCN;     
      from R1-12-47-3_node_27;     
      to R1-12-47-3_node_31;     
      length 229.262;     
      configuration line_configuration_27;     
}       
object overhead_line {     
      groupid Distribution_Line;
      name R1-12-47-3_ol_23;     
      phases ABCN;     
      from R1-12-47-3_node_31;     
      to R1-12-47-3_node_32;     
      length 234.203;     
      configuration line_configuration_18;     
}       
object overhead_line {     
      groupid Distribution_Line;
      name R1-12-47-3_ol_24;     
      phases ABCN;     
      from R1-12-47-3_node_32;     
      to R1-12-47-3_node_34;     
      length 693.760;     
      configuration line_configuration_18;     
}       
object overhead_line {     
      groupid Distribution_Line;
      name R1-12-47-3_ol_25;     
      phases ABCN;     
      from R1-12-47-3_node_35;     
      to R1-12-47-3_node_36;     
      length 277.512;     
      configuration line_configuration_27;     
}       
object overhead_line {     
      groupid Distribution_Line;
      name R1-12-47-3_ol_26;     
      phases ABCN;     
      from R1-12-47-3_node_35;     
      to R1-12-47-3_node_41;     
      length 428.598;     
      configuration line_configuration_21;     
}       
object overhead_line {     
      groupid Distribution_Line;
      name R1-12-47-3_ol_27;     
      phases ABCN;     
      from R1-12-47-3_node_41;     
      to R1-12-47-3_node_42;     
      length 208.252;     
      configuration line_configuration_24;     
}       
object overhead_line {     
      groupid Distribution_Line;
      name R1-12-47-3_ol_28;     
      phases ABCN;     
      from R1-12-47-3_node_41;     
      to R1-12-47-3_node_43;     
      length 288.056;     
      configuration line_configuration_24;     
}       
object overhead_line {     
      groupid Distribution_Line;
      name R1-12-47-3_ol_29;     
      phases AN;     
      from R1-12-47-3_node_43;     
      to R1-12-47-3_node_44;     
      length 127.857;     
      configuration line_configuration_31;     
}       
object overhead_line {     
      groupid Distribution_Line;
      name R1-12-47-3_ol_30;     
      phases ABCN;     
      from R1-12-47-3_node_43;     
      to R1-12-47-3_node_45;     
      length 103.017;     
      configuration line_configuration_27;     
}       
object switch {     
      name R1-12-47-3_switch_1;     
      phases ABCN;     
      from R1-12-47-3_node_52;     
      to R1-12-47-3_node_2;     
      status CLOSED;     
}       
object switch {     
      name R1-12-47-3_switch_2;     
      phases ABCN;     
      from R1-12-47-3_node_9;     
      to R1-12-47-3_node_51;     
      status CLOSED;     
}       
object switch {     
      name R1-12-47-3_switch_3;     
      phases ABCN;     
      from R1-12-47-3_node_15;     
      to R1-12-47-3_node_49;     
      status CLOSED;     
}       
object switch {     
      name R1-12-47-3_switch_4;     
      phases ABCN;     
      from R1-12-47-3_node_15;     
      to R1-12-47-3_node_17;     
      status CLOSED;     
}       
object switch {     
      name R1-12-47-3_switch_5;     
      phases ABCN;     
      from R1-12-47-3_node_34;     
      to R1-12-47-3_node_1;     
      status CLOSED;     
}       
object switch {     
      name R1-12-47-3_switch_6;     
      phases ABCN;     
      from R1-12-47-3_node_34;     
      to R1-12-47-3_node_50;     
      status CLOSED;     
}       
object transformer {     
      groupid Distribution_Trans;
      name R1-12-47-3_xfmr_1;     
      phases BS;     
      from R1-12-47-3_node_40;     
      to R1-12-47-3_tn_1;     
      configuration transformer_configuration_132;     
}       
object transformer {     
      groupid Distribution_Trans;
      name R1-12-47-3_xfmr_2;     
      phases CN;     
      from R1-12-47-3_node_6;     
      to R1-12-47-3_meter_1;     
      configuration transformer_configuration_134;     
}       
object transformer {     
      groupid Distribution_Trans;
      name R1-12-47-3_xfmr_3;     
      phases ABCN;     
      from R1-12-47-3_node_10;     
      to R1-12-47-3_meter_2;     
      configuration transformer_configuration_135;     
}       
object transformer {     
      groupid Distribution_Trans;
      name R1-12-47-3_xfmr_4;     
      phases ACN;     
      from R1-12-47-3_node_11;     
      to R1-12-47-3_meter_3;     
      configuration transformer_configuration_136;     
}       
object transformer {     
      groupid Distribution_Trans;
      name R1-12-47-3_xfmr_5;     
      phases CN;     
      from R1-12-47-3_node_12;     
      to R1-12-47-3_meter_4;     
      configuration transformer_configuration_137;     
}       
object transformer {     
      groupid Distribution_Trans;
      name R1-12-47-3_xfmr_6;     
      phases CN;     
      from R1-12-47-3_node_14;     
      to R1-12-47-3_meter_5;     
      configuration transformer_configuration_137;     
}       
object transformer {     
      groupid Distribution_Trans;
      name R1-12-47-3_xfmr_7;     
      phases ABCN;     
      from R1-12-47-3_node_18;     
      to R1-12-47-3_meter_6;     
      configuration transformer_configuration_138;     
}       
object transformer {     
      groupid Distribution_Trans;
      name R1-12-47-3_xfmr_8;     
      phases AN;     
      from R1-12-47-3_node_20;     
      to R1-12-47-3_meter_7;     
      configuration transformer_configuration_139;     
}       
object transformer {     
      groupid Distribution_Trans;
      name R1-12-47-3_xfmr_9;     
      phases ABCN;     
      from R1-12-47-3_node_22;     
      to R1-12-47-3_meter_8;     
      configuration transformer_configuration_140;     
}       
object transformer {     
      groupid Distribution_Trans;
      name R1-12-47-3_xfmr_10;     
      phases BN;     
      from R1-12-47-3_node_24;     
      to R1-12-47-3_meter_9;     
      configuration transformer_configuration_141;     
}       
object transformer {     
      groupid Distribution_Trans;
      name R1-12-47-3_xfmr_11;     
      phases ABCN;     
      from R1-12-47-3_node_27;     
      to R1-12-47-3_meter_10;     
      configuration transformer_configuration_142;     
}       
object transformer {     
      groupid Distribution_Trans;
      name R1-12-47-3_xfmr_12;     
      phases AN;     
      from R1-12-47-3_node_28;     
      to R1-12-47-3_meter_11;     
      configuration transformer_configuration_143;     
}       
object transformer {     
      groupid Distribution_Trans;
      name R1-12-47-3_xfmr_13;     
      phases AN;     
      from R1-12-47-3_node_29;     
      to R1-12-47-3_meter_12;     
      configuration transformer_configuration_144;     
}       
object transformer {     
      groupid Distribution_Trans;
      name R1-12-47-3_xfmr_14;     
      phases AN;     
      from R1-12-47-3_node_30;     
      to R1-12-47-3_meter_13;     
      configuration transformer_configuration_144;     
}       
object transformer {     
      groupid Distribution_Trans;
      name R1-12-47-3_xfmr_15;     
      phases AN;     
      from R1-12-47-3_node_33;     
      to R1-12-47-3_meter_14;     
      configuration transformer_configuration_144;     
}       
object transformer {     
      groupid Distribution_Trans;
      name R1-12-47-3_xfmr_16;     
      phases BN;     
      from R1-12-47-3_node_37;     
      to R1-12-47-3_meter_15;     
      configuration transformer_configuration_145;     
}       
object transformer {     
      groupid Distribution_Trans;
      name R1-12-47-3_xfmr_17;     
      phases BN;     
      from R1-12-47-3_node_38;     
      to R1-12-47-3_meter_16;     
      configuration transformer_configuration_146;     
}       
object transformer {     
      groupid Distribution_Trans;
      name R1-12-47-3_xfmr_18;     
      phases BN;     
      from R1-12-47-3_node_39;     
      to R1-12-47-3_meter_17;     
      configuration transformer_configuration_145;     
}       
object transformer {     
      groupid Distribution_Trans;
      name R1-12-47-3_xfmr_19;     
      phases ABCN;     
      from R1-12-47-3_node_42;     
      to R1-12-47-3_meter_18;     
      configuration transformer_configuration_147;     
}       
object transformer {     
      groupid Distribution_Trans;
      name R1-12-47-3_xfmr_20;     
      phases AN;     
      from R1-12-47-3_node_44;     
      to R1-12-47-3_meter_19;     
      configuration transformer_configuration_144;     
}       
object transformer {     
      groupid Distribution_Trans;
      name R1-12-47-3_xfmr_21;     
      phases ABCN;     
      from R1-12-47-3_node_47;     
      to R1-12-47-3_meter_20;     
      configuration transformer_configuration_148;     
}       
object transformer {     
      groupid Distribution_Trans;
      name R1-12-47-3_xfmr_22;     
      phases ABCN;     
      from R1-12-47-3_node_48;     
      to R1-12-47-3_meter_21;     
      configuration transformer_configuration_140;     
}       
object triplex_line {     
      groupid Triplex_Line;
      name R1-12-47-3_tl_1;     
      phases BS;     
      from R1-12-47-3_tn_1;     
      to R1-12-47-3_tm_1;     
      length 30;     
      configuration triplex_line_configuration_1;     
}       
object triplex_meter {     
      name R1-12-47-3_tm_1;     
      phases BS;     
      voltage_1 -60-103.92j;     
      voltage_2 -60-103.92j;     
      voltage_N 0;     
      nominal_voltage 120;     
}       
object triplex_node {     
      name R1-12-47-3_tn_1;     
      phases BS;     
      voltage_1 -60-103.92j;     
      voltage_2 -60-103.92j;     
      voltage_N 0;     
      nominal_voltage 120;     
}       
object triplex_node {     
      name R1-12-47-3_tn_2;     
      phases BS;     
      parent R1-12-47-3_tm_1;     
      voltage_1 -60-103.92j;     
      voltage_2 -60-103.92j;     
      voltage_N 0;     
      nominal_voltage 120;     
}       
object underground_line {     
      groupid Distribution_Line;
      name R1-12-47-3_ul_1;     
      phases ABCN;     
      from R1-12-47-3_node_2;     
      to R1-12-47-3_node_3;     
      length 84.593;     
      configuration line_configuration_17;     
}       
object underground_line {     
      groupid Distribution_Line;
      name R1-12-47-3_ul_2;     
      phases BN;     
      from R1-12-47-3_node_23;     
      to R1-12-47-3_node_24;     
      length 160.451;     
      configuration line_configuration_29;     
}       
object underground_line {     
      groupid Distribution_Line;
      name R1-12-47-3_ul_3;     
      phases BCN;     
      from R1-12-47-3_node_23;     
      to R1-12-47-3_node_25;     
      length 190.827;     
      configuration line_configuration_28;     
}       
object underground_line {     
      groupid Distribution_Line;
      name R1-12-47-3_ul_4;     
      phases BN;     
      from R1-12-47-3_node_37;     
      to R1-12-47-3_node_38;     
      length 165.500;     
      configuration line_configuration_29;     
}       
object underground_line {     
      groupid Distribution_Line;
      name R1-12-47-3_ul_5;     
      phases BN;     
      from R1-12-47-3_node_37;     
      to R1-12-47-3_node_39;     
      length 74.300;     
      configuration line_configuration_29;     
}       
object underground_line {     
      groupid Distribution_Line;
      name R1-12-47-3_ul_6;     
      phases ABCN;     
      from R1-12-47-3_node_45;     
      to R1-12-47-3_node_46;     
      length 202.409;     
      configuration line_configuration_33;     
}       
object underground_line {     
      groupid Distribution_Line;
      name R1-12-47-3_ul_7;     
      phases ABCN;     
      from R1-12-47-3_node_46;     
      to R1-12-47-3_node_47;     
      length 131.003;     
      configuration line_configuration_33;     
}       
object underground_line {     
      groupid Distribution_Line;
      name R1-12-47-3_ul_8;     
      phases ABCN;     
      from R1-12-47-3_node_46;     
      to R1-12-47-3_node_48;     
      length 258.143;     
      configuration line_configuration_33;     
}       
object triplex_meter {
      phases BS;
      name tpm1_R1-12-47-3_tm_1;
      parent R1-12-47-3_tm_1;
      groupid Residential_Meter;
      meter_power_consumption 2+11j;
      bill_mode HOURLY;
      monthly_fee 10.00;
      bill_day 1;
      power_market Market_1;
      nominal_voltage 120;
}
object house {
     parent tpm1_R1-12-47-3_tm_1;
     name house1_R1-12-47-3_tm_1;
     groupid Residential;
     schedule_skew 1083;
     floor_area 2500;
     number_of_stories 1;
     ceiling_height 8;
     over_sizing_factor 0.1;
     //Thermal integrity -> Single Family 7
     Rroof 50.34;
     Rwall 27.33;
     Rfloor 35.59;
     glazing_layers 3;
     glass_type 2;
     glazing_treatment 2;
     window_frame 4;
     Rdoors 10.51;
     airchange_per_hour 0.23;
     cooling_COP 3.8;
     air_temperature 71.22;
     mass_temperature 71.22;
     total_thermal_mass_per_floor_area 3.504;
     heating_system_type GAS;
     cooling_system_type NONE;
     breaker_amps 1000;
     hvac_breaker_rating 1000;
     cooling_setpoint cooling6*1.59+69.19;
     heating_setpoint heating6*0.35+59.01;
     object ZIPload {
           name house1_resp_R1-12-47-3_tn_2;
           // Responsive load
           schedule_skew 1083;
           base_power responsive_loads*1.06;
           heatgain_fraction 0.900;
           power_pf 1.000;
           current_pf 1.000;
           impedance_pf 1.000;
           impedance_fraction 0.200000;
           current_fraction 0.400000;
           power_fraction 0.400000;
           object passive_controller {
                period 900;
                control_mode ELASTICITY_MODEL;
                two_tier_cpp false;
                observation_object Market_1;
                observation_property past_market.clearing_price;
                state_property multiplier;
                linearize_elasticity true;
                price_offset 0.01;
                critical_day 0;
                first_tier_hours 12;
                second_tier_hours 12;
                first_tier_price 0.066115;
                second_tier_price 0.132229;
                old_first_tier_price 0.124300;
                old_second_tier_price 0.124300;
                daily_elasticity daily_elasticity_wtech*1.1731;
                sub_elasticity_first_second -0.1783;
                sub_elasticity_first_third -0.2604;
            };
     };
     object ZIPload {
           // Unresponsive load
           schedule_skew 1083;
           base_power unresponsive_loads*0.97;
           heatgain_fraction 0.900;
           power_pf 1.000;
           current_pf 1.000;
           impedance_pf 1.000;
           impedance_fraction 0.200000;
           current_fraction 0.400000;
           power_fraction 0.400000;
     };
     object waterheater {
          schedule_skew 4326;
          heating_element_capacity 4.5 kW;
          tank_setpoint 132.7;
          temperature 132;
          thermostat_deadband 7.8;
          location INSIDE;
          tank_UA 3.7;
          demand large_6*0.99;
          tank_volume 50;
          object passive_controller {
	            period 900;
	            control_mode PROBABILITY_OFF;
	            distribution_type NORMAL;
	            observation_object Market_1;
	            observation_property past_market.clearing_price;
	            stdev_observation_property my_std;
	            expectation_object Market_1;
	            expectation_property my_avg;
	            comfort_level 0.51;
	            state_property override;
          };
     };

}

object triplex_meter {
      phases BS;
      name tpm2_R1-12-47-3_tm_1;
      parent R1-12-47-3_tm_1;
      groupid Residential_Meter;
      meter_power_consumption 2+11j;
      bill_mode HOURLY;
      monthly_fee 10.00;
      bill_day 1;
      power_market Market_1;
      nominal_voltage 120;
}
object house {
     parent tpm2_R1-12-47-3_tm_1;
     name house2_R1-12-47-3_tm_1;
     groupid Residential;
     schedule_skew 3482;
     floor_area 2119;
     number_of_stories 1;
     ceiling_height 8;
     over_sizing_factor 0.1;
     //Thermal integrity -> Single Family 2
     Rroof 18.57;
     Rwall 10.39;
     Rfloor 11.75;
     glazing_layers 2;
     glass_type 1;
     glazing_treatment 1;
     window_frame 1;
     Rdoors 3.02;
     airchange_per_hour 0.80;
     cooling_COP 2.6;
     air_temperature 69.73;
     mass_temperature 69.73;
     total_thermal_mass_per_floor_area 2.978;
     heating_system_type GAS;
     cooling_system_type NONE;
     breaker_amps 1000;
     hvac_breaker_rating 1000;
     cooling_setpoint cooling7*1.36+79.84;
     heating_setpoint heating1*0.87+60.99;
     object ZIPload {
           name house2_resp_R1-12-47-3_tn_2;
           // Responsive load
           schedule_skew 3482;
           base_power responsive_loads*0.91;
           heatgain_fraction 0.900;
           power_pf 1.000;
           current_pf 1.000;
           impedance_pf 1.000;
           impedance_fraction 0.200000;
           current_fraction 0.400000;
           power_fraction 0.400000;
           object passive_controller {
                period 900;
                control_mode ELASTICITY_MODEL;
                two_tier_cpp false;
                observation_object Market_1;
                observation_property past_market.clearing_price;
                state_property multiplier;
...